.SUBCKT TR1 P1 P2 Sp1 Sp2
*  
LP1 P1 P2 4uH
LSA Sp1 Sp2 16uH
KALL 	LP1 LSA 0.6
.ENDS TR1