.SUBCKT TR2 P1 P2 Sp1 Sp2
*  
LP1 P1 P2 3.385uH
LSA Sp1 Sp2 13.5uH
KALL 	LP1 LSA 0.99999
.ENDS TR1