.SUBCKT TR4 P1 P2 Sp1 Sp2
*  
LP1 P1 P2 1uH
LSA Sp1 Sp2 1uH
KALL 	LP1 LSA 0.999999
.ENDS TR1